/*--------------------------------*- C++ -*----------------------------------*\
  =========                 |
  \\      /  F ield         | OpenFOAM: The Open Source CFD Toolbox
   \\    /   O peration     | Website:  https://openfoam.org
    \\  /    A nd           | Version:  7
     \\/     M anipulation  |
\*---------------------------------------------------------------------------*/
FoamFile
{
    version     2.0;
    format      ascii;
    class       dictionary;
    object      transportProperties;
}
// * * * * * * * * * * * * * * * * * * * * * * * * * * * * * * * * * * * * * //

transportModel  Newtonian;

nu              nu [0 2 -1 0 0 0 0] 1e-06;
d               d [0 1 0 0 0 0 0]  2e-6;
rho             rho [1 -3 0 0 0 0 0] 1000;
eps             eps [0 0 0 0 0 0 0] 0.9999;

// ************************************************************************* //
